LAMMPS (3 Mar 2020)

# ---------- Initialize Simulation ---------------------
clear
units metal
dimension 3
boundary p p p
atom_style atomic
atom_modify map array

# ---------- Create Atoms ---------------------
lattice 	fcc 2.9
Lattice spacing in x,y,z = 2.9 2.9 2.9
region	box block 0 1 0 1 0 1 units lattice
create_box	1 box
Created orthogonal box = (0 0 0) to (2.9 2.9 2.9)

lattice	fcc 4 orient x 1 0 0 orient y 0 1 0 orient z 0 0 1
Lattice spacing in x,y,z = 4 4 4
create_atoms 1 box
Created 4 atoms
replicate 1 1 1
  orthogonal box = (0 0 0) to (2.9 2.9 2.9)
  4 atoms
  replicate CPU = 0.000276104 secs

# ---------- Define Interatomic Potential ---------------------
pair_style eam/alloy
pair_coeff * * Al99.eam.alloy Al
neighbor 2.0 bin
neigh_modify delay 10 check yes

# ---------- Define Settings ---------------------
compute eng all pe/atom
compute eatoms all reduce sum c_eng

# ---------- Run Minimization ---------------------
reset_timestep 0
fix 1 all box/relax iso 0.0 vmax 0.001
#thermo 10
thermo_style custom step pe lx ly lz press pxx pyy pzz c_eatoms
min_style cg
minimize 1e-25 1e-25 5000 10000
  update every 1 steps, delay 0 steps, check yes
Step PotEng Lx Ly Lz Press Pxx Pyy Pzz c_eatoms
0     20.08981          2.9          2.9          2.9    3675395.8    3675395.8    3675395.8    3675395.8     20.08981
Loop time of 0.0214548 on 1 procs for 826 steps with 4 atoms

Minimization stats:
  Stopping criterion = energy tolerance
  Energy initial, next-to-last, final =
  Force two-norm initial, final = 169.375 2.91548e-14
  Force max component initial, final = 167.845 2.60354e-14
  Final line search alpha, max atom move = 1 2.60354e-14
  Iterations, force evaluations = 826 836

variable natoms equal "count(all)"
variable teng equal "c_eatoms"
variable length equal "lx"
variable ecoh equal "v_teng/v_natoms"

Lattice constant (Angstoms) = 4.05000466178543;
Cohesive energy (eV) = -3.35999998818377;

# ---------- Initialize Simulation ---------------------
clear
units metal
dimension 3
boundary p p p
atom_style atomic

# ---------- Create Atomistic Structure ---------------------
lattice fcc 4.05
Lattice spacing in x,y,z = 4.05 4.05 4.05
region whole block 0.000000 12.807225 -64.0361225 64.0361225 0.000000 4.050000 units box
create_box 2 whole
Created orthogonal box = (0 -64.0361 0) to (12.8072 64.0361 4.05)
region upper block INF INF 0.000000 64.0361225 INF INF units box
lattice fcc 4.05 orient x  0  3  1 orient y  0 -1  3 orient z  1  0  0
Lattice spacing in x,y,z = 5.12289 5.12289 4.05
create_atoms 1 region upper
Created 200 atoms
region lower block INF INF -64.0361225 0.000000 INF INF units box
lattice fcc 4.05 orient x  0  3 -1 orient y  0  1  3 orient z  1  0  0
Lattice spacing in x,y,z = 5.12289 5.12289 4.05
create_atoms 2 region lower
Created 200 atoms
group upper type 1
200 atoms in group upper
group lower type 2
200 atoms in group lower

# ---------- Define Interatomic Potential ---------------------
pair_style eam/alloy
pair_coeff * * Al99.eam.alloy Al Al
neighbor 2.0 bin
neigh_modify delay 10 check yes

# ---------- Displace atoms and delete overlapping atoms ---------------------
displace_atoms upper move 0 0 0 units lattice
delete_atoms overlap 3 lower upper
  update every 1 steps, delay 10 steps, check yes
Deleted 14 atoms, new total = 386

# ---------- Define Settings ---------------------
compute csym all centro/atom fcc
compute eng all pe/atom #potential energy for each atom
compute eatoms all reduce sum c_eng #sum potential energy of atoms

# ---------- Run Minimization ---------------------
reset_timestep 0
thermo_style custom step pe lx ly lz press pxx pyy pzz c_eatoms
#thermo 10
dump 		1 all cfg 25 dump.sig5_minimization_*.cfg mass type xs ys zs c_csym c_eng fx fy fz
dump_modify     1 element Al Al
min_style cg
minimize 1e-15 1e-15 5000 5000
  update every 1 steps, delay 0 steps, check yes
Step PotEng Lx Ly Lz Press Pxx Pyy Pzz c_eatoms
0   -1285.6294    12.807225    128.07225         4.05   -3685.2147   -3997.4273   -3646.2088   -3412.0079   -1285.6294
Loop time of 0.312259 on 1 procs for 186 steps with 386 atoms

Minimization stats:
  Stopping criterion = energy tolerance
  Energy initial, next-to-last, final =
  Force two-norm initial, final = 1.32043 1.88282e-06
  Force max component initial, final = 0.300812 2.79963e-07
  Final line search alpha, max atom move = 1 2.79963e-07
  Iterations, force evaluations = 186 356

undump 1

# ---------- Run Minimization 2---------------------
# Now allow the box to expand/contract perpendicular to the grain boundary
reset_timestep 0
#thermo 10
thermo_style custom step pe lx ly lz press pxx pyy pzz c_eatoms
fix 1 all box/relax y 0 vmax 0.001
min_style cg
minimize 1e-15 1e-15 5000 5000
Step PotEng Lx Ly Lz Press Pxx Pyy Pzz c_eatoms
0   -1291.3643    12.807225    128.07225         4.05   -22928.374   -17368.197   -32188.877   -19228.049   -1291.3643
Loop time of 2.91579 on 1 procs for 1771 steps with 386 atoms

Minimization stats:
  Stopping criterion = energy tolerance
  Energy initial, next-to-last, final =
  Force two-norm initial, final = 133.463 0.000261657
  Force max component initial, final = 133.463 0.000190227
  Final line search alpha, max atom move = 1 0.000190227
  Iterations, force evaluations = 1771 3514

# ---------- Calculate GB Energy ---------------------
variable minimumenergy equal -3.360000
variable esum equal "v_minimumenergy * count(all)"
variable xseng equal "c_eatoms - (v_minimumenergy * count(all))"
variable gbarea equal "lx * lz * 2"
variable gbe equal "(c_eatoms - (v_minimumenergy * count(all)))/v_gbarea"
variable gbemJm2 equal 0.0352124617628047*16021.7733
variable gbernd equal round(564.166079698575)
GB energy is 564.166079698575 mJ/m^2

# ---------- Dump data into Data file -------------
reset_timestep 0
dump 		1 all cfg 10000 dump.al_sig5_310_*.cfg mass type xs ys zs c_csym c_eng fx fy fz
dump_modify     1 element Al Al
minimize 1e-15 1e-15 5000 5000
Step PotEng Lx Ly Lz Press Pxx Pyy Pzz c_eatoms
0   -1293.3071    12.807225    124.39526         4.05   -874.53008   -781.72329  0.045879327   -1841.9128   -1293.3071
Loop time of 0.0569029 on 1 procs for 31 steps with 386 atoms

Minimization stats:
  Stopping criterion = energy tolerance
  Energy initial, next-to-last, final =
  Force two-norm initial, final = 0.000257714 6.61232e-05
  Force max component initial, final = 0.000184765 1.79669e-05
  Final line search alpha, max atom move = 1 1.79669e-05
  Iterations, force evaluations = 31 62

undump 1

write_restart restart.al_sig5_310_stgb

print "All done"
All done
